<routes>
                <vType id="typeWE" accel="0.8" decel="4.5" sigma="0.5" length="5" minGap="2.5" maxSpeed="16.67" guiShape="passenger"/>
                <vType id="typeNS" accel="0.8" decel="4.5" sigma="0.5" length="7" minGap="3" maxSpeed="20" guiShape="bus"/>
                
                <route id="right" edges="51o 1i 2o 52i" />
                <route id="left" edges="52o 2i 1o 51i" />
                <route id="down" edges="54o 4i 3o 53i" />
                <route id="up" edges="53o 3i 4o 54i" />
                
                <route id="right_up" edges="51o 1i 4o 54i" />
                <route id="right_down" edges="51o 1i 3o 53i" />
                <route id="left_up" edges="52o 2i 4o 54i" />
                <route id="left_down" edges="52o 2i 3o 53i" />
                
                <route id="up_right" edges="53o 3i 2o 52i" />
                <route id="up_left" edges="53o 3i 1o 51i" />
                <route id="down_right" edges="54o 4i 2o 52i" />
                <route id="down_left" edges="54o 4i 1o 51i" />
                
    <vehicle id="left_0" type="typeWE" route="left" depart="0" />
    <vehicle id="right_1" type="typeWE" route="right" depart="1" />
    <vehicle id="right_down_2" type="typeWE" route="right_down" depart="1" color="1,0,0"/>
    <vehicle id="left_down_3" type="typeWE" route="left_down" depart="3" color="1,0,0"/>
    <vehicle id="right_down_4" type="typeWE" route="right_down" depart="5" color="1,0,0"/>
    <vehicle id="left_down_5" type="typeWE" route="left_down" depart="7" color="1,0,0"/>
    <vehicle id="left_up_6" type="typeWE" route="left_up" depart="8" color="1,0,0"/>
    <vehicle id="left_up_7" type="typeWE" route="left_up" depart="10" color="1,0,0"/>
    <vehicle id="right_up_8" type="typeWE" route="right_up" depart="10" color="1,0,0"/>
    <vehicle id="right_9" type="typeWE" route="right" depart="21" />
    <vehicle id="left_down_10" type="typeWE" route="left_down" depart="22" color="1,0,0"/>
    <vehicle id="down_11" type="typeNS" route="down" depart="24" color="1,0,0"/>
    <vehicle id="down_left12" type="typeNS" route="down_left" depart="24" color="1,0,0"/>
    <vehicle id="right_13" type="typeWE" route="right" depart="27" />
    <vehicle id="right_up_14" type="typeWE" route="right_up" depart="28" color="1,0,0"/>
    <vehicle id="down_right_15" type="typeNS" route="down_right" depart="30" color="1,0,0"/>
    <vehicle id="up_right_16" type="typeNS" route="up_right" depart="32" color="1,0,0"/>
    <vehicle id="right_down_17" type="typeWE" route="right_down" depart="34" color="1,0,0"/>
    <vehicle id="right_down_18" type="typeWE" route="right_down" depart="35" color="1,0,0"/>
    <vehicle id="left_19" type="typeWE" route="left" depart="39" />
    <vehicle id="left_20" type="typeWE" route="left" depart="40" />
    <vehicle id="left_21" type="typeWE" route="left" depart="41" />
    <vehicle id="right_22" type="typeWE" route="right" depart="42" />
    <vehicle id="left_23" type="typeWE" route="left" depart="43" />
    <vehicle id="down_24" type="typeNS" route="down" depart="43" color="1,0,0"/>
    <vehicle id="right_25" type="typeWE" route="right" depart="44" />
    <vehicle id="up_26" type="typeNS" route="up" depart="45" color="1,0,0"/>
    <vehicle id="left_27" type="typeWE" route="left" depart="49" />
    <vehicle id="up_right_28" type="typeNS" route="up_right" depart="49" color="1,0,0"/>
    <vehicle id="right_29" type="typeWE" route="right" depart="50" />
    <vehicle id="left_30" type="typeWE" route="left" depart="53" />
    <vehicle id="right_31" type="typeWE" route="right" depart="57" />
    <vehicle id="right_32" type="typeWE" route="right" depart="60" />
    <vehicle id="left_33" type="typeWE" route="left" depart="68" />
    <vehicle id="right_34" type="typeWE" route="right" depart="71" />
    <vehicle id="right_35" type="typeWE" route="right" depart="72" />
    <vehicle id="right_up_36" type="typeWE" route="right_up" depart="73" color="1,0,0"/>
    <vehicle id="down_right_37" type="typeNS" route="down_right" depart="79" color="1,0,0"/>
    <vehicle id="right_up_38" type="typeWE" route="right_up" depart="80" color="1,0,0"/>
    <vehicle id="left_down_39" type="typeWE" route="left_down" depart="84" color="1,0,0"/>
    <vehicle id="right_up_40" type="typeWE" route="right_up" depart="85" color="1,0,0"/>
    <vehicle id="left_41" type="typeWE" route="left" depart="86" />
    <vehicle id="down_42" type="typeNS" route="down" depart="86" color="1,0,0"/>
    <vehicle id="left_down_43" type="typeWE" route="left_down" depart="87" color="1,0,0"/>
    <vehicle id="left_44" type="typeWE" route="left" depart="91" />
    <vehicle id="left_down_45" type="typeWE" route="left_down" depart="94" color="1,0,0"/>
    <vehicle id="left_46" type="typeWE" route="left" depart="97" />
    <vehicle id="left_up_47" type="typeWE" route="left_up" depart="97" color="1,0,0"/>
    <vehicle id="up_right_48" type="typeNS" route="up_right" depart="97" color="1,0,0"/>
    <vehicle id="down_left49" type="typeNS" route="down_left" depart="98" color="1,0,0"/>
    <vehicle id="left_down_50" type="typeWE" route="left_down" depart="99" color="1,0,0"/>
    <vehicle id="right_51" type="typeWE" route="right" depart="103" />
    <vehicle id="left_52" type="typeWE" route="left" depart="105" />
    <vehicle id="left_down_53" type="typeWE" route="left_down" depart="114" color="1,0,0"/>
    <vehicle id="up_left_54" type="typeNS" route="up_left" depart="115" color="1,0,0"/>
    <vehicle id="right_55" type="typeWE" route="right" depart="116" />
    <vehicle id="left_up_56" type="typeWE" route="left_up" depart="117" color="1,0,0"/>
    <vehicle id="left_57" type="typeWE" route="left" depart="118" />
    <vehicle id="left_58" type="typeWE" route="left" depart="119" />
    <vehicle id="right_59" type="typeWE" route="right" depart="121" />
    <vehicle id="left_60" type="typeWE" route="left" depart="123" />
    <vehicle id="left_61" type="typeWE" route="left" depart="124" />
    <vehicle id="left_down_62" type="typeWE" route="left_down" depart="125" color="1,0,0"/>
    <vehicle id="right_63" type="typeWE" route="right" depart="134" />
    <vehicle id="left_64" type="typeWE" route="left" depart="134" />
    <vehicle id="left_65" type="typeWE" route="left" depart="138" />
    <vehicle id="left_down_66" type="typeWE" route="left_down" depart="143" color="1,0,0"/>
    <vehicle id="right_down_67" type="typeWE" route="right_down" depart="144" color="1,0,0"/>
    <vehicle id="up_right_68" type="typeNS" route="up_right" depart="144" color="1,0,0"/>
    <vehicle id="right_down_69" type="typeWE" route="right_down" depart="150" color="1,0,0"/>
    <vehicle id="right_70" type="typeWE" route="right" depart="153" />
    <vehicle id="down_71" type="typeNS" route="down" depart="156" color="1,0,0"/>
    <vehicle id="right_72" type="typeWE" route="right" depart="159" />
    <vehicle id="right_73" type="typeWE" route="right" depart="161" />
    <vehicle id="right_down_74" type="typeWE" route="right_down" depart="161" color="1,0,0"/>
    <vehicle id="left_down_75" type="typeWE" route="left_down" depart="163" color="1,0,0"/>
    <vehicle id="right_up_76" type="typeWE" route="right_up" depart="163" color="1,0,0"/>
    <vehicle id="up_right_77" type="typeNS" route="up_right" depart="164" color="1,0,0"/>
    <vehicle id="left_78" type="typeWE" route="left" depart="165" />
    <vehicle id="left_up_79" type="typeWE" route="left_up" depart="165" color="1,0,0"/>
    <vehicle id="right_80" type="typeWE" route="right" depart="167" />
    <vehicle id="up_right_81" type="typeNS" route="up_right" depart="170" color="1,0,0"/>
    <vehicle id="right_82" type="typeWE" route="right" depart="176" />
    <vehicle id="down_right_83" type="typeNS" route="down_right" depart="176" color="1,0,0"/>
    <vehicle id="up_right_84" type="typeNS" route="up_right" depart="176" color="1,0,0"/>
    <vehicle id="down_85" type="typeNS" route="down" depart="177" color="1,0,0"/>
    <vehicle id="left_86" type="typeWE" route="left" depart="179" />
    <vehicle id="left_down_87" type="typeWE" route="left_down" depart="179" color="1,0,0"/>
    <vehicle id="right_88" type="typeWE" route="right" depart="180" />
    <vehicle id="right_down_89" type="typeWE" route="right_down" depart="180" color="1,0,0"/>
    <vehicle id="right_90" type="typeWE" route="right" depart="181" />
    <vehicle id="left_down_91" type="typeWE" route="left_down" depart="183" color="1,0,0"/>
    <vehicle id="left_92" type="typeWE" route="left" depart="185" />
    <vehicle id="right_93" type="typeWE" route="right" depart="186" />
    <vehicle id="left_94" type="typeWE" route="left" depart="192" />
    <vehicle id="right_down_95" type="typeWE" route="right_down" depart="193" color="1,0,0"/>
    <vehicle id="down_96" type="typeNS" route="down" depart="194" color="1,0,0"/>
    <vehicle id="down_97" type="typeNS" route="down" depart="195" color="1,0,0"/>
    <vehicle id="right_98" type="typeWE" route="right" depart="202" />
    <vehicle id="down_99" type="typeNS" route="down" depart="202" color="1,0,0"/>
    <vehicle id="right_100" type="typeWE" route="right" depart="203" />
    <vehicle id="left_101" type="typeWE" route="left" depart="203" />
    <vehicle id="left_down_102" type="typeWE" route="left_down" depart="204" color="1,0,0"/>
    <vehicle id="left_103" type="typeWE" route="left" depart="209" />
    <vehicle id="down_right_104" type="typeNS" route="down_right" depart="209" color="1,0,0"/>
    <vehicle id="left_up_105" type="typeWE" route="left_up" depart="211" color="1,0,0"/>
    <vehicle id="up_left_106" type="typeNS" route="up_left" depart="211" color="1,0,0"/>
    <vehicle id="right_down_107" type="typeWE" route="right_down" depart="213" color="1,0,0"/>
    <vehicle id="right_108" type="typeWE" route="right" depart="214" />
    <vehicle id="right_down_109" type="typeWE" route="right_down" depart="215" color="1,0,0"/>
    <vehicle id="left_110" type="typeWE" route="left" depart="217" />
    <vehicle id="down_left111" type="typeNS" route="down_left" depart="219" color="1,0,0"/>
    <vehicle id="right_112" type="typeWE" route="right" depart="220" />
    <vehicle id="left_113" type="typeWE" route="left" depart="220" />
    <vehicle id="left_114" type="typeWE" route="left" depart="222" />
    <vehicle id="left_down_115" type="typeWE" route="left_down" depart="225" color="1,0,0"/>
    <vehicle id="up_left_116" type="typeNS" route="up_left" depart="227" color="1,0,0"/>
    <vehicle id="right_117" type="typeWE" route="right" depart="229" />
    <vehicle id="right_down_118" type="typeWE" route="right_down" depart="229" color="1,0,0"/>
    <vehicle id="left_119" type="typeWE" route="left" depart="231" />
    <vehicle id="left_down_120" type="typeWE" route="left_down" depart="235" color="1,0,0"/>
    <vehicle id="left_up_121" type="typeWE" route="left_up" depart="236" color="1,0,0"/>
    <vehicle id="right_122" type="typeWE" route="right" depart="237" />
    <vehicle id="right_up_123" type="typeWE" route="right_up" depart="237" color="1,0,0"/>
    <vehicle id="left_124" type="typeWE" route="left" depart="238" />
    <vehicle id="left_down_125" type="typeWE" route="left_down" depart="242" color="1,0,0"/>
    <vehicle id="down_right_126" type="typeNS" route="down_right" depart="243" color="1,0,0"/>
    <vehicle id="left_up_127" type="typeWE" route="left_up" depart="244" color="1,0,0"/>
    <vehicle id="up_128" type="typeNS" route="up" depart="247" color="1,0,0"/>
    <vehicle id="down_129" type="typeNS" route="down" depart="249" color="1,0,0"/>
    <vehicle id="right_down_130" type="typeWE" route="right_down" depart="251" color="1,0,0"/>
    <vehicle id="right_down_131" type="typeWE" route="right_down" depart="253" color="1,0,0"/>
    <vehicle id="down_left132" type="typeNS" route="down_left" depart="261" color="1,0,0"/>
    <vehicle id="down_133" type="typeNS" route="down" depart="264" color="1,0,0"/>
    <vehicle id="up_134" type="typeNS" route="up" depart="265" color="1,0,0"/>
    <vehicle id="right_135" type="typeWE" route="right" depart="267" />
    <vehicle id="up_136" type="typeNS" route="up" depart="267" color="1,0,0"/>
    <vehicle id="right_down_137" type="typeWE" route="right_down" depart="267" color="1,0,0"/>
    <vehicle id="left_up_138" type="typeWE" route="left_up" depart="271" color="1,0,0"/>
    <vehicle id="left_139" type="typeWE" route="left" depart="276" />
    <vehicle id="left_down_140" type="typeWE" route="left_down" depart="277" color="1,0,0"/>
    <vehicle id="left_down_141" type="typeWE" route="left_down" depart="280" color="1,0,0"/>
    <vehicle id="left_142" type="typeWE" route="left" depart="281" />
    <vehicle id="left_down_143" type="typeWE" route="left_down" depart="283" color="1,0,0"/>
    <vehicle id="up_right_144" type="typeNS" route="up_right" depart="283" color="1,0,0"/>
    <vehicle id="left_145" type="typeWE" route="left" depart="285" />
    <vehicle id="left_down_146" type="typeWE" route="left_down" depart="288" color="1,0,0"/>
    <vehicle id="left_147" type="typeWE" route="left" depart="289" />
    <vehicle id="left_148" type="typeWE" route="left" depart="293" />
    <vehicle id="left_up_149" type="typeWE" route="left_up" depart="295" color="1,0,0"/>
    <vehicle id="left_down_150" type="typeWE" route="left_down" depart="297" color="1,0,0"/>
    <vehicle id="right_151" type="typeWE" route="right" depart="302" />
    <vehicle id="right_152" type="typeWE" route="right" depart="303" />
    <vehicle id="right_down_153" type="typeWE" route="right_down" depart="304" color="1,0,0"/>
    <vehicle id="left_154" type="typeWE" route="left" depart="308" />
    <vehicle id="left_up_155" type="typeWE" route="left_up" depart="309" color="1,0,0"/>
    <vehicle id="right_down_156" type="typeWE" route="right_down" depart="311" color="1,0,0"/>
    <vehicle id="right_157" type="typeWE" route="right" depart="313" />
    <vehicle id="left_158" type="typeWE" route="left" depart="313" />
    <vehicle id="up_right_159" type="typeNS" route="up_right" depart="313" color="1,0,0"/>
    <vehicle id="down_left160" type="typeNS" route="down_left" depart="316" color="1,0,0"/>
    <vehicle id="left_up_161" type="typeWE" route="left_up" depart="320" color="1,0,0"/>
    <vehicle id="left_162" type="typeWE" route="left" depart="322" />
    <vehicle id="up_163" type="typeNS" route="up" depart="322" color="1,0,0"/>
    <vehicle id="left_down_164" type="typeWE" route="left_down" depart="322" color="1,0,0"/>
    <vehicle id="right_up_165" type="typeWE" route="right_up" depart="325" color="1,0,0"/>
    <vehicle id="right_166" type="typeWE" route="right" depart="326" />
    <vehicle id="left_down_167" type="typeWE" route="left_down" depart="329" color="1,0,0"/>
    <vehicle id="right_up_168" type="typeWE" route="right_up" depart="329" color="1,0,0"/>
    <vehicle id="right_169" type="typeWE" route="right" depart="330" />
    <vehicle id="right_up_170" type="typeWE" route="right_up" depart="330" color="1,0,0"/>
    <vehicle id="left_171" type="typeWE" route="left" depart="333" />
    <vehicle id="right_172" type="typeWE" route="right" depart="335" />
    <vehicle id="left_173" type="typeWE" route="left" depart="336" />
    <vehicle id="up_174" type="typeNS" route="up" depart="339" color="1,0,0"/>
    <vehicle id="right_down_175" type="typeWE" route="right_down" depart="341" color="1,0,0"/>
    <vehicle id="down_left176" type="typeNS" route="down_left" depart="341" color="1,0,0"/>
    <vehicle id="down_177" type="typeNS" route="down" depart="345" color="1,0,0"/>
    <vehicle id="right_178" type="typeWE" route="right" depart="346" />
    <vehicle id="right_down_179" type="typeWE" route="right_down" depart="348" color="1,0,0"/>
    <vehicle id="down_right_180" type="typeNS" route="down_right" depart="350" color="1,0,0"/>
    <vehicle id="right_181" type="typeWE" route="right" depart="355" />
    <vehicle id="right_182" type="typeWE" route="right" depart="357" />
    <vehicle id="up_183" type="typeNS" route="up" depart="358" color="1,0,0"/>
    <vehicle id="down_184" type="typeNS" route="down" depart="359" color="1,0,0"/>
    <vehicle id="left_up_185" type="typeWE" route="left_up" depart="360" color="1,0,0"/>
    <vehicle id="right_up_186" type="typeWE" route="right_up" depart="362" color="1,0,0"/>
    <vehicle id="up_left_187" type="typeNS" route="up_left" depart="362" color="1,0,0"/>
    <vehicle id="up_188" type="typeNS" route="up" depart="363" color="1,0,0"/>
    <vehicle id="right_down_189" type="typeWE" route="right_down" depart="363" color="1,0,0"/>
    <vehicle id="up_left_190" type="typeNS" route="up_left" depart="365" color="1,0,0"/>
    <vehicle id="right_191" type="typeWE" route="right" depart="366" />
    <vehicle id="right_down_192" type="typeWE" route="right_down" depart="369" color="1,0,0"/>
    <vehicle id="up_left_193" type="typeNS" route="up_left" depart="370" color="1,0,0"/>
    <vehicle id="right_194" type="typeWE" route="right" depart="371" />
    <vehicle id="right_195" type="typeWE" route="right" depart="372" />
    <vehicle id="down_left196" type="typeNS" route="down_left" depart="374" color="1,0,0"/>
    <vehicle id="left_197" type="typeWE" route="left" depart="375" />
    <vehicle id="left_198" type="typeWE" route="left" depart="378" />
    <vehicle id="right_199" type="typeWE" route="right" depart="379" />
    <vehicle id="left_down_200" type="typeWE" route="left_down" depart="383" color="1,0,0"/>
    <vehicle id="left_201" type="typeWE" route="left" depart="384" />
    <vehicle id="right_202" type="typeWE" route="right" depart="386" />
    <vehicle id="up_right_203" type="typeNS" route="up_right" depart="386" color="1,0,0"/>
    <vehicle id="right_down_204" type="typeWE" route="right_down" depart="388" color="1,0,0"/>
    <vehicle id="left_205" type="typeWE" route="left" depart="390" />
    <vehicle id="right_down_206" type="typeWE" route="right_down" depart="390" color="1,0,0"/>
    <vehicle id="down_207" type="typeNS" route="down" depart="392" color="1,0,0"/>
    <vehicle id="right_up_208" type="typeWE" route="right_up" depart="392" color="1,0,0"/>
    <vehicle id="left_up_209" type="typeWE" route="left_up" depart="393" color="1,0,0"/>
    <vehicle id="right_down_210" type="typeWE" route="right_down" depart="393" color="1,0,0"/>
    <vehicle id="right_211" type="typeWE" route="right" depart="394" />
    <vehicle id="down_212" type="typeNS" route="down" depart="394" color="1,0,0"/>
    <vehicle id="down_right_213" type="typeNS" route="down_right" depart="394" color="1,0,0"/>
    <vehicle id="up_right_214" type="typeNS" route="up_right" depart="395" color="1,0,0"/>
    <vehicle id="up_215" type="typeNS" route="up" depart="397" color="1,0,0"/>
    <vehicle id="right_216" type="typeWE" route="right" depart="403" />
    <vehicle id="down_217" type="typeNS" route="down" depart="403" color="1,0,0"/>
    <vehicle id="left_down_218" type="typeWE" route="left_down" depart="404" color="1,0,0"/>
    <vehicle id="right_up_219" type="typeWE" route="right_up" depart="405" color="1,0,0"/>
    <vehicle id="left_down_220" type="typeWE" route="left_down" depart="411" color="1,0,0"/>
    <vehicle id="right_up_221" type="typeWE" route="right_up" depart="412" color="1,0,0"/>
    <vehicle id="left_down_222" type="typeWE" route="left_down" depart="417" color="1,0,0"/>
    <vehicle id="right_up_223" type="typeWE" route="right_up" depart="417" color="1,0,0"/>
    <vehicle id="left_up_224" type="typeWE" route="left_up" depart="418" color="1,0,0"/>
    <vehicle id="up_left_225" type="typeNS" route="up_left" depart="418" color="1,0,0"/>
    <vehicle id="left_up_226" type="typeWE" route="left_up" depart="419" color="1,0,0"/>
    <vehicle id="right_down_227" type="typeWE" route="right_down" depart="422" color="1,0,0"/>
    <vehicle id="down_right_228" type="typeNS" route="down_right" depart="423" color="1,0,0"/>
    <vehicle id="down_229" type="typeNS" route="down" depart="425" color="1,0,0"/>
    <vehicle id="up_left_230" type="typeNS" route="up_left" depart="426" color="1,0,0"/>
    <vehicle id="left_up_231" type="typeWE" route="left_up" depart="431" color="1,0,0"/>
    <vehicle id="down_right_232" type="typeNS" route="down_right" depart="435" color="1,0,0"/>
    <vehicle id="right_233" type="typeWE" route="right" depart="437" />
    <vehicle id="left_234" type="typeWE" route="left" depart="437" />
    <vehicle id="down_right_235" type="typeNS" route="down_right" depart="439" color="1,0,0"/>
    <vehicle id="left_236" type="typeWE" route="left" depart="440" />
    <vehicle id="right_237" type="typeWE" route="right" depart="443" />
    <vehicle id="right_down_238" type="typeWE" route="right_down" depart="444" color="1,0,0"/>
    <vehicle id="right_239" type="typeWE" route="right" depart="445" />
    <vehicle id="up_240" type="typeNS" route="up" depart="446" color="1,0,0"/>
    <vehicle id="right_down_241" type="typeWE" route="right_down" depart="449" color="1,0,0"/>
    <vehicle id="left_242" type="typeWE" route="left" depart="450" />
    <vehicle id="right_243" type="typeWE" route="right" depart="452" />
    <vehicle id="left_244" type="typeWE" route="left" depart="452" />
    <vehicle id="right_down_245" type="typeWE" route="right_down" depart="452" color="1,0,0"/>
    <vehicle id="left_up_246" type="typeWE" route="left_up" depart="458" color="1,0,0"/>
    <vehicle id="right_247" type="typeWE" route="right" depart="462" />
    <vehicle id="right_down_248" type="typeWE" route="right_down" depart="463" color="1,0,0"/>
    <vehicle id="down_right_249" type="typeNS" route="down_right" depart="466" color="1,0,0"/>
    <vehicle id="up_right_250" type="typeNS" route="up_right" depart="466" color="1,0,0"/>
    <vehicle id="right_251" type="typeWE" route="right" depart="467" />
    <vehicle id="left_252" type="typeWE" route="left" depart="468" />
    <vehicle id="down_right_253" type="typeNS" route="down_right" depart="468" color="1,0,0"/>
    <vehicle id="right_254" type="typeWE" route="right" depart="469" />
    <vehicle id="up_255" type="typeNS" route="up" depart="476" color="1,0,0"/>
    <vehicle id="left_down_256" type="typeWE" route="left_down" depart="476" color="1,0,0"/>
    <vehicle id="left_up_257" type="typeWE" route="left_up" depart="477" color="1,0,0"/>
    <vehicle id="left_up_258" type="typeWE" route="left_up" depart="478" color="1,0,0"/>
    <vehicle id="left_down_259" type="typeWE" route="left_down" depart="479" color="1,0,0"/>
    <vehicle id="right_260" type="typeWE" route="right" depart="480" />
    <vehicle id="left_261" type="typeWE" route="left" depart="481" />
    <vehicle id="left_up_262" type="typeWE" route="left_up" depart="488" color="1,0,0"/>
    <vehicle id="up_left_263" type="typeNS" route="up_left" depart="489" color="1,0,0"/>
    <vehicle id="left_down_264" type="typeWE" route="left_down" depart="492" color="1,0,0"/>
    <vehicle id="left_265" type="typeWE" route="left" depart="494" />
    <vehicle id="left_266" type="typeWE" route="left" depart="495" />
    <vehicle id="down_267" type="typeNS" route="down" depart="497" color="1,0,0"/>
    <vehicle id="up_268" type="typeNS" route="up" depart="497" color="1,0,0"/>
    <vehicle id="down_left269" type="typeNS" route="down_left" depart="501" color="1,0,0"/>
    <vehicle id="left_up_270" type="typeWE" route="left_up" depart="504" color="1,0,0"/>
    <vehicle id="right_271" type="typeWE" route="right" depart="505" />
    <vehicle id="right_up_272" type="typeWE" route="right_up" depart="505" color="1,0,0"/>
    <vehicle id="left_273" type="typeWE" route="left" depart="506" />
    <vehicle id="up_right_274" type="typeNS" route="up_right" depart="507" color="1,0,0"/>
    <vehicle id="right_275" type="typeWE" route="right" depart="512" />
    <vehicle id="right_down_276" type="typeWE" route="right_down" depart="516" color="1,0,0"/>
    <vehicle id="down_277" type="typeNS" route="down" depart="517" color="1,0,0"/>
    <vehicle id="down_278" type="typeNS" route="down" depart="519" color="1,0,0"/>
    <vehicle id="right_down_279" type="typeWE" route="right_down" depart="519" color="1,0,0"/>
    <vehicle id="up_right_280" type="typeNS" route="up_right" depart="520" color="1,0,0"/>
    <vehicle id="right_281" type="typeWE" route="right" depart="524" />
    <vehicle id="left_up_282" type="typeWE" route="left_up" depart="525" color="1,0,0"/>
    <vehicle id="right_up_283" type="typeWE" route="right_up" depart="529" color="1,0,0"/>
    <vehicle id="right_down_284" type="typeWE" route="right_down" depart="533" color="1,0,0"/>
    <vehicle id="left_285" type="typeWE" route="left" depart="544" />
    <vehicle id="left_286" type="typeWE" route="left" depart="549" />
    <vehicle id="right_down_287" type="typeWE" route="right_down" depart="549" color="1,0,0"/>
    <vehicle id="up_right_288" type="typeNS" route="up_right" depart="552" color="1,0,0"/>
    <vehicle id="right_289" type="typeWE" route="right" depart="554" />
    <vehicle id="left_down_290" type="typeWE" route="left_down" depart="558" color="1,0,0"/>
    <vehicle id="right_down_291" type="typeWE" route="right_down" depart="558" color="1,0,0"/>
    <vehicle id="up_292" type="typeNS" route="up" depart="561" color="1,0,0"/>
    <vehicle id="down_right_293" type="typeNS" route="down_right" depart="562" color="1,0,0"/>
    <vehicle id="up_right_294" type="typeNS" route="up_right" depart="562" color="1,0,0"/>
    <vehicle id="up_left_295" type="typeNS" route="up_left" depart="563" color="1,0,0"/>
    <vehicle id="up_left_296" type="typeNS" route="up_left" depart="564" color="1,0,0"/>
    <vehicle id="up_297" type="typeNS" route="up" depart="567" color="1,0,0"/>
    <vehicle id="right_298" type="typeWE" route="right" depart="570" />
    <vehicle id="left_299" type="typeWE" route="left" depart="570" />
    <vehicle id="right_down_300" type="typeWE" route="right_down" depart="570" color="1,0,0"/>
    <vehicle id="left_up_301" type="typeWE" route="left_up" depart="571" color="1,0,0"/>
    <vehicle id="right_302" type="typeWE" route="right" depart="576" />
    <vehicle id="down_303" type="typeNS" route="down" depart="576" color="1,0,0"/>
    <vehicle id="down_304" type="typeNS" route="down" depart="578" color="1,0,0"/>
    <vehicle id="right_up_305" type="typeWE" route="right_up" depart="579" color="1,0,0"/>
    <vehicle id="left_306" type="typeWE" route="left" depart="580" />
    <vehicle id="right_up_307" type="typeWE" route="right_up" depart="580" color="1,0,0"/>
    <vehicle id="right_up_308" type="typeWE" route="right_up" depart="581" color="1,0,0"/>
    <vehicle id="right_309" type="typeWE" route="right" depart="584" />
    <vehicle id="right_down_310" type="typeWE" route="right_down" depart="587" color="1,0,0"/>
    <vehicle id="right_311" type="typeWE" route="right" depart="592" />
    <vehicle id="up_left_312" type="typeNS" route="up_left" depart="592" color="1,0,0"/>
    <vehicle id="left_up_313" type="typeWE" route="left_up" depart="594" color="1,0,0"/>
    <vehicle id="up_right_314" type="typeNS" route="up_right" depart="597" color="1,0,0"/>
    <vehicle id="up_315" type="typeNS" route="up" depart="598" color="1,0,0"/>
    <vehicle id="left_316" type="typeWE" route="left" depart="599" />
    <vehicle id="right_317" type="typeWE" route="right" depart="601" />
    <vehicle id="up_318" type="typeNS" route="up" depart="601" color="1,0,0"/>
    <vehicle id="up_319" type="typeNS" route="up" depart="602" color="1,0,0"/>
    <vehicle id="down_320" type="typeNS" route="down" depart="603" color="1,0,0"/>
    <vehicle id="right_down_321" type="typeWE" route="right_down" depart="603" color="1,0,0"/>
    <vehicle id="right_up_322" type="typeWE" route="right_up" depart="608" color="1,0,0"/>
    <vehicle id="left_up_323" type="typeWE" route="left_up" depart="611" color="1,0,0"/>
    <vehicle id="left_324" type="typeWE" route="left" depart="612" />
    <vehicle id="up_left_325" type="typeNS" route="up_left" depart="612" color="1,0,0"/>
    <vehicle id="right_326" type="typeWE" route="right" depart="614" />
    <vehicle id="up_left_327" type="typeNS" route="up_left" depart="615" color="1,0,0"/>
    <vehicle id="right_328" type="typeWE" route="right" depart="618" />
    <vehicle id="down_329" type="typeNS" route="down" depart="618" color="1,0,0"/>
    <vehicle id="left_up_330" type="typeWE" route="left_up" depart="619" color="1,0,0"/>
    <vehicle id="right_down_331" type="typeWE" route="right_down" depart="620" color="1,0,0"/>
    <vehicle id="up_right_332" type="typeNS" route="up_right" depart="620" color="1,0,0"/>
    <vehicle id="left_333" type="typeWE" route="left" depart="622" />
    <vehicle id="right_334" type="typeWE" route="right" depart="624" />
    <vehicle id="right_down_335" type="typeWE" route="right_down" depart="625" color="1,0,0"/>
    <vehicle id="right_down_336" type="typeWE" route="right_down" depart="628" color="1,0,0"/>
    <vehicle id="down_left337" type="typeNS" route="down_left" depart="629" color="1,0,0"/>
    <vehicle id="right_up_338" type="typeWE" route="right_up" depart="632" color="1,0,0"/>
    <vehicle id="left_up_339" type="typeWE" route="left_up" depart="633" color="1,0,0"/>
    <vehicle id="down_340" type="typeNS" route="down" depart="635" color="1,0,0"/>
    <vehicle id="right_341" type="typeWE" route="right" depart="636" />
    <vehicle id="up_left_342" type="typeNS" route="up_left" depart="637" color="1,0,0"/>
    <vehicle id="left_343" type="typeWE" route="left" depart="638" />
    <vehicle id="left_344" type="typeWE" route="left" depart="642" />
    <vehicle id="down_right_345" type="typeNS" route="down_right" depart="642" color="1,0,0"/>
    <vehicle id="up_right_346" type="typeNS" route="up_right" depart="643" color="1,0,0"/>
    <vehicle id="down_left347" type="typeNS" route="down_left" depart="645" color="1,0,0"/>
    <vehicle id="left_348" type="typeWE" route="left" depart="652" />